Version 4
SHEET 1 3976 1164
WIRE -176 -720 -304 -720
WIRE -16 -720 -112 -720
WIRE 208 -672 -672 -672
WIRE 560 -672 448 -672
WIRE 736 -672 736 -704
WIRE 736 -672 624 -672
WIRE 880 -672 736 -672
WIRE 880 -624 880 -672
WIRE 880 -624 800 -624
WIRE -672 -608 -672 -672
WIRE -672 -608 -688 -608
WIRE 880 -608 880 -624
WIRE -400 -592 -512 -592
WIRE -304 -592 -304 -720
WIRE -304 -592 -400 -592
WIRE -272 -592 -304 -592
WIRE -16 -592 -16 -720
WIRE -16 -592 -48 -592
WIRE 0 -592 -16 -592
WIRE 448 -592 448 -672
WIRE 448 -592 304 -592
WIRE 464 -592 448 -592
WIRE 736 -592 736 -672
WIRE 736 -592 688 -592
WIRE -400 -560 -400 -592
WIRE 800 -560 800 -624
WIRE 832 -560 800 -560
WIRE -752 -528 -752 -608
WIRE -752 -528 -800 -528
WIRE -672 -528 -672 -608
WIRE -464 -528 -512 -528
WIRE -272 -528 -464 -528
WIRE 80 -528 -48 -528
WIRE 208 -528 208 -672
WIRE 464 -528 208 -528
WIRE 720 -528 688 -528
WIRE -272 -464 -672 -464
WIRE 112 -464 -48 -464
WIRE 464 -464 176 -464
WIRE 720 -464 720 -528
WIRE 720 -464 688 -464
WIRE 880 -464 880 -528
WIRE 880 -464 720 -464
WIRE 880 -432 880 -464
WIRE -272 -400 -320 -400
WIRE 0 -400 -48 -400
WIRE 368 -400 272 -400
WIRE 464 -400 368 -400
WIRE 736 -400 688 -400
WIRE 736 -368 736 -400
WIRE 0 -352 0 -400
WIRE 368 -320 368 -400
WIRE 880 -320 880 -368
WIRE -672 -272 -672 -464
WIRE 736 -256 736 -304
WIRE 0 -240 0 -288
WIRE -608 -224 -624 -224
WIRE -544 -224 -608 -224
WIRE -464 -224 -464 -528
WIRE 368 -208 368 -240
WIRE -464 -176 -464 -224
WIRE 112 -176 112 -464
WIRE 112 -176 -464 -176
WIRE -672 -160 -672 -192
WIRE -608 -160 -608 -224
WIRE -608 -160 -672 -160
WIRE 176 -80 176 -464
WIRE 48 0 -640 0
WIRE -816 64 -944 64
WIRE -640 64 -640 0
WIRE -640 64 -736 64
WIRE -560 64 -640 64
WIRE -464 64 -480 64
WIRE -448 64 -464 64
WIRE -304 64 -368 64
WIRE 48 96 48 0
WIRE 48 96 -16 96
WIRE -640 128 -640 64
WIRE -640 128 -928 128
WIRE -560 128 -640 128
WIRE -304 128 -560 128
WIRE -176 144 -208 144
WIRE -80 144 -96 144
WIRE 48 144 48 96
WIRE -944 176 -944 64
WIRE -944 176 -1040 176
WIRE -896 176 -944 176
WIRE -640 176 -640 128
WIRE -640 176 -672 176
WIRE -304 192 -304 128
WIRE -336 208 -640 208
WIRE -208 224 -208 144
WIRE -208 224 -272 224
WIRE -896 240 -960 240
WIRE -464 240 -464 64
WIRE -336 240 -368 240
WIRE -368 288 -368 240
WIRE -368 288 -416 288
WIRE 48 288 48 240
WIRE 112 288 48 288
WIRE 256 288 192 288
WIRE -896 304 -1088 304
WIRE -640 304 -640 208
WIRE -640 304 -672 304
WIRE -304 304 -304 256
WIRE 48 336 48 288
WIRE -928 368 -928 128
WIRE -896 368 -928 368
WIRE -560 400 -560 128
WIRE -544 400 -560 400
WIRE -464 400 -464 320
WIRE -336 400 -384 400
WIRE -960 432 -960 240
WIRE -800 432 -960 432
WIRE -640 432 -640 304
WIRE -640 432 -800 432
WIRE -1088 480 -1088 304
WIRE -1040 480 -1088 480
WIRE -912 480 -960 480
WIRE -800 480 -800 432
WIRE -800 480 -832 480
WIRE 48 480 48 416
WIRE 48 496 48 480
WIRE -800 512 -800 480
WIRE -1040 528 -1040 480
WIRE -1008 528 -1040 528
WIRE -800 608 -800 576
WIRE -800 624 -800 608
FLAG 0 -592 9V
IOPIN 0 -592 BiDir
FLAG 80 -528 0
FLAG 0 -240 0
FLAG -320 -400 9V
IOPIN -320 -400 BiDir
FLAG -800 -528 9V
IOPIN -800 -528 BiDir
FLAG -400 -560 0
FLAG -1040 176 0
FLAG -800 608 0
FLAG -304 304 0
FLAG -336 400 0
FLAG 48 480 0
FLAG 256 288 BME
IOPIN 256 288 BiDir
FLAG -640 0 9V
IOPIN -640 0 BiDir
FLAG 304 -592 0
FLAG 736 -256 0
FLAG 368 -208 0
FLAG 272 -400 BME
IOPIN 272 -400 BiDir
FLAG 880 -320 0
FLAG 736 -704 9V
IOPIN 736 -704 BiDir
FLAG -304 64 0
SYMBOL Misc\\NE555 -160 -496 R0
SYMATTR InstName U4
SYMBOL cap -16 -352 R0
SYMATTR InstName C4
SYMATTR Value 10nF
SYMBOL cap -528 -592 R0
SYMATTR InstName C5
SYMATTR Value 1µF
SYMBOL res -448 -240 R90
WINDOW 0 0 56 VBottom 2
WINDOW 3 32 56 VTop 2
SYMATTR InstName R2
SYMATTR Value 6.8k
SYMBOL pot -688 -288 R0
SYMATTR InstName U7
SYMATTR Value Rtot=50K wiper=1
SYMBOL cap -688 -528 R0
SYMATTR InstName C6
SYMATTR Value 10nF
SYMBOL res -656 -544 R90
WINDOW 0 0 56 VBottom 2
WINDOW 3 32 56 VTop 2
SYMATTR InstName R4
SYMATTR Value 1k
SYMBOL diode -688 -592 M270
WINDOW 0 32 32 VTop 2
WINDOW 3 0 32 VBottom 2
SYMATTR InstName D1
SYMBOL cap -112 -736 R90
WINDOW 0 0 32 VBottom 2
WINDOW 3 32 32 VTop 2
SYMATTR InstName C10
SYMATTR Value 100nF
SYMBOL voltage -720 64 R90
WINDOW 0 -32 56 VBottom 2
WINDOW 3 32 56 VTop 2
WINDOW 123 0 0 Left 0
WINDOW 39 0 0 Left 0
SYMATTR InstName V1
SYMATTR Value 9
SYMBOL Misc\\NE555 -784 272 R0
SYMATTR InstName U8
SYMBOL pot -944 464 R90
SYMATTR InstName U9
SYMATTR Value Rtot=100K wiper=1
SYMBOL res -816 464 R90
WINDOW 0 0 56 VBottom 2
WINDOW 3 32 56 VTop 2
SYMATTR InstName R5
SYMATTR Value 4.7k
SYMBOL cap -816 512 R0
SYMATTR InstName C11
SYMATTR Value 33µF
SYMBOL OpAmps\\AD8032 -304 160 R0
SYMATTR InstName U10
SYMBOL pot -480 224 R0
SYMATTR InstName U11
SYMATTR Value Rtot=10k wiper=.01
SYMBOL res -448 384 R90
WINDOW 0 0 56 VBottom 2
WINDOW 3 32 56 VTop 2
SYMATTR InstName R8
SYMATTR Value 3.3k
SYMBOL res -368 384 R90
WINDOW 0 0 56 VBottom 2
WINDOW 3 32 56 VTop 2
SYMATTR InstName R9
SYMATTR Value 2k
SYMBOL npn -80 96 R0
SYMATTR InstName Q1
SYMBOL npn -16 144 R0
SYMATTR InstName Q2
SYMBOL res 32 320 R0
SYMATTR InstName R1
SYMATTR Value 22k
SYMBOL res -80 128 R90
WINDOW 0 0 56 VBottom 2
WINDOW 3 32 56 VTop 2
SYMATTR InstName R10
SYMATTR Value 100
SYMBOL res 208 272 R90
WINDOW 0 0 56 VBottom 2
WINDOW 3 32 56 VTop 2
SYMATTR InstName R11
SYMATTR Value 1k
SYMBOL Misc\\NE555 576 -496 R0
SYMATTR InstName U1
SYMBOL cap 720 -368 R0
SYMATTR InstName C1
SYMATTR Value 10nF
SYMBOL cap 560 -656 R270
WINDOW 0 32 32 VTop 2
WINDOW 3 0 32 VBottom 2
SYMATTR InstName C2
SYMATTR Value 100nF
SYMBOL res 352 -336 R0
SYMATTR InstName R3
SYMATTR Value 1k
SYMBOL cap 864 -432 R0
SYMATTR InstName C3
SYMATTR Value 47nF
SYMBOL pot 896 -624 M0
SYMATTR InstName U2
SYMATTR Value Rtot=5K wiper=1
SYMBOL res -464 48 R90
WINDOW 0 0 56 VBottom 2
WINDOW 3 32 56 VTop 2
SYMATTR InstName R6
SYMATTR Value 2.2k
SYMBOL res -352 48 R90
WINDOW 0 0 56 VBottom 2
WINDOW 3 32 56 VTop 2
SYMATTR InstName R7
SYMATTR Value 1.1k
TEXT -2696 632 Left 2 !.tran 5
